electric-grid/physical/synthetic/synAustinTD/models/syn-austin-D_only-v03/P3U/base/opendss/p3uhs21_1247/Master.dss
Clear

New Circuit.substation_p3uhs21_69 bus1=p3uhs21_69 pu=1.0 basekV=69.0 R1=1e-05 X1=1e-05 R0=1e-05 X0=1e-05

Redirect Transformers.dss
Redirect p3uhs21_1247--p3udt5899/Transformers.dss
Redirect p3uhs21_1247--p3udt8885/Transformers.dss
Redirect Regulators.dss
Redirect p3uhs21_1247--p3udt5899/Loads.dss
Redirect p3uhs21_1247--p3udt8885/Loads.dss
Redirect LineCodes.dss
Redirect p3uhs21_1247--p3udt5899/LineCodes.dss
Redirect p3uhs21_1247--p3udt8885/LineCodes.dss
Redirect Lines.dss
Redirect p3uhs21_1247--p3udt5899/Lines.dss
Redirect p3uhs21_1247--p3udt8885/Lines.dss
Redirect p3uhs21_1247--p3udt5899/Capacitors.dss
Redirect p3uhs21_1247--p3udt8885/Capacitors.dss

Set Voltagebases=[0.2080002494301389, 0.48, 7.199560000000001, 12.47, 69.0]

Calcvoltagebases

Buscoords Buscoords.dss

Solve